taxonomy/R5-25000-6.glm
// R5-25000-1.glm

module powerflow
{ 
     solver_method NR; 
}

object regulator:3920
{ 
     name R5-25-00-1_reg_1; 
     from R5-25-00-1_node_953; 
     to R5-25-00-1_meter_15; 
     phases ABCN; 
     configuration regulator_configuration:3921; 
} 

object regulator_configuration:3921
{ 
     name feeder_reg_cfg; 
     Control OUTPUT_VOLTAGE; 
     band_center 13773.0; 
     band_width 220; 
     connect_type WYE_WYE; 
     time_delay 30; 
     raise_taps 16; 
     lower_taps 16; 
     regulation 0.10; 
     tap_pos_A 0; 
     tap_pos_B 0; 
     tap_pos_C 0; 
} 

object capacitor:3915
{ 
     name R5-25-00-1_cap_1; 
     phases ABCN; 
     pt_phase B; 
     parent R5-25-00-1_node_242; 
     phases_connected ABC; 
     control VOLT; 
     voltage_set_high 13500; 
     voltage_set_low 12500; 
     capacitor_A 0.4 MVAr; 
     capacitor_B 0.4 MVAr; 
     capacitor_C 0.4 MVAr; 
     control_level INDIVIDUAL; 
     time_delay 30.0; 
     dwell_time 30.0; 
     cap_nominal_voltage 13230; 
     nominal_voltage 13221.32; 
} 

object capacitor:3916
{ 
     name R5-25-00-1_cap_2; 
     phases ABCN; 
     pt_phase B; 
     parent R5-25-00-1_node_241; 
     phases_connected ABC; 
     control VOLT; 
     voltage_set_high 13500; 
     voltage_set_low 12500; 
     capacitor_A 0.4 MVAr; 
     capacitor_B 0.4 MVAr; 
     capacitor_C 0.4 MVAr; 
     control_level INDIVIDUAL; 
     time_delay 30.0; 
     dwell_time 30.0; 
     cap_nominal_voltage 13230; 
     nominal_voltage 13221.32; 
} 

object capacitor:3917
{ 
     name R5-25-00-1_cap_3; 
     phases ABCN; 
     pt_phase B; 
     parent R5-25-00-1_node_860; 
     phases_connected ABC; 
     control VOLT; 
     voltage_set_high 13500; 
     voltage_set_low 12500; 
     capacitor_A 0.4 MVAr; 
     capacitor_B 0.4 MVAr; 
     capacitor_C 0.4 MVAr; 
     control_level INDIVIDUAL; 
     time_delay 30.0; 
     dwell_time 30.0; 
     cap_nominal_voltage 13230; 
     nominal_voltage 13221.32; 
} 

object capacitor:3918
{ 
     name R5-25-00-1_cap_4; 
     phases ABCN; 
     pt_phase B; 
     parent R5-25-00-1_node_861; 
     phases_connected ABC; 
     control VOLT; 
     voltage_set_high 13500; 
     voltage_set_low 12500; 
     capacitor_A 0.4 MVAr; 
     capacitor_B 0.4 MVAr; 
     capacitor_C 0.4 MVAr; 
     control_level INDIVIDUAL; 
     time_delay 30.0; 
     dwell_time 30.0; 
     cap_nominal_voltage 13230; 
     nominal_voltage 13221.32; 
} 

object fuse:3808
{ 
     name R5-25-00-1_fuse_1; 
     phases ABCN; 
     from R5-25-00-1_node_274; 
     to R5-25-00-1_node_2; 
     current_limit 65; 
     status CLOSED; 
} 

object fuse:3809
{ 
     name R5-25-00-1_fuse_2; 
     phases AN; 
     from R5-25-00-1_node_6; 
     to R5-25-00-1_node_132; 
     current_limit 10; 
     status CLOSED; 
} 

object fuse:3810
{ 
     name R5-25-00-1_fuse_3; 
     phases CN; 
     from R5-25-00-1_node_9; 
     to R5-25-00-1_node_10; 
     current_limit 10; 
     status CLOSED; 
} 

object fuse:3811
{ 
     name R5-25-00-1_fuse_4; 
     phases BN; 
     from R5-25-00-1_node_794; 
     to R5-25-00-1_node_39; 
     current_limit 65; 
     status CLOSED; 
} 

object fuse:3812
{ 
     name R5-25-00-1_fuse_5; 
     phases ABCN; 
     from R5-25-00-1_node_248; 
     to R5-25-00-1_node_247; 
     current_limit 100; 
     status CLOSED; 
} 

object fuse:3813
{ 
     name R5-25-00-1_fuse_6; 
     phases ABCN; 
     from R5-25-00-1_node_250; 
     to R5-25-00-1_node_249; 
     current_limit 125; 
     status CLOSED; 
} 

object fuse:3814
{ 
     name R5-25-00-1_fuse_7; 
     phases ABCN; 
     from R5-25-00-1_node_273; 
     to R5-25-00-1_node_272; 
     current_limit 65; 
     status CLOSED; 
} 

object fuse:3815
{ 
     name R5-25-00-1_fuse_8; 
     phases CN; 
     from R5-25-00-1_node_305; 
     to R5-25-00-1_node_204; 
     current_limit 50; 
     status CLOSED; 
} 

object fuse:3816
{ 
     name R5-25-00-1_fuse_9; 
     phases CN; 
     from R5-25-00-1_node_772; 
     to R5-25-00-1_node_310; 
     current_limit 50; 
     status CLOSED; 
} 

object fuse:3817
{ 
     name R5-25-00-1_fuse_10; 
     phases AN; 
     from R5-25-00-1_node_311; 
     to R5-25-00-1_node_179; 
     current_limit 50; 
     status CLOSED; 
} 

object fuse:3818
{ 
     name R5-25-00-1_fuse_11; 
     phases AN; 
     from R5-25-00-1_node_145; 
     to R5-25-00-1_node_316; 
     current_limit 15; 
     status CLOSED; 
} 

object fuse:3819
{ 
     name R5-25-00-1_fuse_12; 
     phases BN; 
     from R5-25-00-1_node_321; 
     to R5-25-00-1_node_322; 
     current_limit 80; 
     status CLOSED; 
} 

object fuse:3820
{ 
     name R5-25-00-1_fuse_13; 
     phases BN; 
     from R5-25-00-1_node_328; 
     to R5-25-00-1_node_327; 
     current_limit 80; 
     status CLOSED; 
} 

object fuse:3821
{ 
     name R5-25-00-1_fuse_14; 
     phases CN; 
     from R5-25-00-1_node_329; 
     to R5-25-00-1_node_330; 
     current_limit 40; 
     status CLOSED; 
} 

object fuse:3822
{ 
     name R5-25-00-1_fuse_15; 
     phases CN; 
     from R5-25-00-1_node_227; 
     to R5-25-00-1_node_166; 
     current_limit 40; 
     status CLOSED; 
} 

object fuse:3823
{ 
     name R5-25-00-1_fuse_16; 
     phases AN; 
     from R5-25-00-1_node_226; 
     to R5-25-00-1_node_229; 
     current_limit 80; 
     status CLOSED; 
} 

object fuse:3824
{ 
     name R5-25-00-1_fuse_17; 
     phases AN; 
     from R5-25-00-1_node_353; 
     to R5-25-00-1_node_182; 
     current_limit 80; 
     status CLOSED; 
} 

object fuse:3825
{ 
     name R5-25-00-1_fuse_18; 
     phases CN; 
     from R5-25-00-1_node_354; 
     to R5-25-00-1_node_355; 
     current_limit 65; 
     status CLOSED; 
} 

object fuse:3826
{ 
     name R5-25-00-1_fuse_19; 
     phases CN; 
     from R5-25-00-1_node_362; 
     to R5-25-00-1_node_363; 
     current_limit 65; 
     status CLOSED; 
} 

object fuse:3827
{ 
     name R5-25-00-1_fuse_20; 
     phases CN; 
     from R5-25-00-1_node_200; 
     to R5-25-00-1_node_364; 
     current_limit 40; 
     status CLOSED; 
} 

object fuse:3828
{ 
     name R5-25-00-1_fuse_21; 
     phases CN; 
     from R5-25-00-1_node_773; 
     to R5-25-00-1_node_370; 
     current_limit 40; 
     status CLOSED; 
} 

object fuse:3829
{ 
     name R5-25-00-1_fuse_22; 
     phases CN; 
     from R5-25-00-1_node_371; 
     to R5-25-00-1_node_149; 
     current_limit 65; 
     status CLOSED; 
} 

object fuse:3830
{ 
     name R5-25-00-1_fuse_23; 
     phases CN; 
     from R5-25-00-1_node_377; 
     to R5-25-00-1_node_378; 
     current_limit 65; 
     status CLOSED; 
} 

object fuse:3831
{ 
     name R5-25-00-1_fuse_24; 
     phases CN; 
     from R5-25-00-1_node_227; 
     to R5-25-00-1_node_163; 
     current_limit 20; 
     status CLOSED; 
} 

object fuse:3832
{ 
     name R5-25-00-1_fuse_25; 
     phases AN; 
     from R5-25-00-1_node_383; 
     to R5-25-00-1_node_384; 
     current_limit 65; 
     status CLOSED; 
} 

object fuse:3833
{ 
     name R5-25-00-1_fuse_26; 
     phases CN; 
     from R5-25-00-1_node_389; 
     to R5-25-00-1_node_238; 
     current_limit 65; 
     status CLOSED; 
} 

object fuse:3834
{ 
     name R5-25-00-1_fuse_27; 
     phases CN; 
     from R5-25-00-1_node_411; 
     to R5-25-00-1_node_171; 
     current_limit 65; 
     status CLOSED; 
} 

object fuse:3835
{ 
     name R5-25-00-1_fuse_28; 
     phases BN; 
     from R5-25-00-1_node_412; 
     to R5-25-00-1_node_187; 
     current_limit 50; 
     status CLOSED; 
} 

object fuse:3836
{ 
     name R5-25-00-1_fuse_29; 
     phases BN; 
     from R5-25-00-1_node_426; 
     to R5-25-00-1_node_427; 
     current_limit 80; 
     status CLOSED; 
} 

object fuse:3837
{ 
     name R5-25-00-1_fuse_30; 
     phases BN; 
     from R5-25-00-1_node_428; 
     to R5-25-00-1_node_429; 
     current_limit 8; 
     status CLOSED; 
} 

object fuse:3838
{ 
     name R5-25-00-1_fuse_31; 
     phases AN; 
     from R5-25-00-1_node_432; 
     to R5-25-00-1_node_176; 
     current_limit 50; 
     status CLOSED; 
} 

object fuse:3839
{ 
     name R5-25-00-1_fuse_32; 
     phases CN; 
     from R5-25-00-1_node_439; 
     to R5-25-00-1_node_228; 
     current_limit 50; 
     status CLOSED; 
} 

object fuse:3840
{ 
     name R5-25-00-1_fuse_33; 
     phases CN; 
     from R5-25-00-1_node_444; 
     to R5-25-00-1_node_445; 
     current_limit 50; 
     status CLOSED; 
} 

object fuse:3841
{ 
     name R5-25-00-1_fuse_34; 
     phases AN; 
     from R5-25-00-1_node_411; 
     to R5-25-00-1_node_172; 
     current_limit 100; 
     status CLOSED; 
} 

object fuse:3842
{ 
     name R5-25-00-1_fuse_35; 
     phases AN; 
     from R5-25-00-1_node_389; 
     to R5-25-00-1_node_173; 
     current_limit 100; 
     status CLOSED; 
} 

object fuse:3843
{ 
     name R5-25-00-1_fuse_36; 
     phases AN; 
     from R5-25-00-1_node_480; 
     to R5-25-00-1_node_481; 
     current_limit 50; 
     status CLOSED; 
} 

object fuse:3844
{ 
     name R5-25-00-1_fuse_37; 
     phases AN; 
     from R5-25-00-1_node_491; 
     to R5-25-00-1_node_492; 
     current_limit 50; 
     status CLOSED; 
} 

object fuse:3845
{ 
     name R5-25-00-1_fuse_38; 
     phases BCN; 
     from R5-25-00-1_node_123; 
     to R5-25-00-1_node_77; 
     current_limit 100; 
     status CLOSED; 
} 

object fuse:3846
{ 
     name R5-25-00-1_fuse_39; 
     phases ABN; 
     from R5-25-00-1_node_518; 
     to R5-25-00-1_node_519; 
     current_limit 100; 
     status CLOSED; 
} 

object fuse:3847
{ 
     name R5-25-00-1_fuse_40; 
     phases AN; 
     from R5-25-00-1_node_123; 
     to R5-25-00-1_node_76; 
     current_limit 65; 
     status CLOSED; 
} 

object fuse:3848
{ 
     name R5-25-00-1_fuse_41; 
     phases ABN; 
     from R5-25-00-1_node_595; 
     to R5-25-00-1_node_61; 
     current_limit 65; 
     status CLOSED; 
} 

object fuse:3849
{ 
     name R5-25-00-1_fuse_42; 
     phases AN; 
     from R5-25-00-1_node_624; 
     to R5-25-00-1_node_625; 
     current_limit 80; 
     status CLOSED; 
} 

object fuse:3850
{ 
     name R5-25-00-1_fuse_43; 
     phases AN; 
     from R5-25-00-1_node_635; 
     to R5-25-00-1_node_636; 
     current_limit 80; 
     status CLOSED; 
} 

object fuse:3851
{ 
     name R5-25-00-1_fuse_44; 
     phases BN; 
     from R5-25-00-1_node_637; 
     to R5-25-00-1_node_638; 
     current_limit 80; 
     status CLOSED; 
} 

object fuse:3852
{ 
     name R5-25-00-1_fuse_45; 
     phases AN; 
     from R5-25-00-1_node_641; 
     to R5-25-00-1_node_642; 
     current_limit 65; 
     status CLOSED; 
} 

object fuse:3853
{ 
     name R5-25-00-1_fuse_46; 
     phases AN; 
     from R5-25-00-1_node_658; 
     to R5-25-00-1_node_659; 
     current_limit 80; 
     status CLOSED; 
} 

object fuse:3854
{ 
     name R5-25-00-1_fuse_47; 
     phases AN; 
     from R5-25-00-1_node_110; 
     to R5-25-00-1_node_674; 
     current_limit 80; 
     status CLOSED; 
} 

object fuse:3855
{ 
     name R5-25-00-1_fuse_48; 
     phases BN; 
     from R5-25-00-1_node_675; 
     to R5-25-00-1_node_676; 
     current_limit 80; 
     status CLOSED; 
} 

object fuse:3856
{ 
     name R5-25-00-1_fuse_49; 
     phases BN; 
     from R5-25-00-1_node_934; 
     to R5-25-00-1_node_935; 
     current_limit 8; 
     status CLOSED; 
} 

object fuse:3857
{ 
     name R5-25-00-1_fuse_50; 
     phases CN; 
     from R5-25-00-1_node_714; 
     to R5-25-00-1_node_715; 
     current_limit 6; 
     status CLOSED; 
} 

object fuse:3858
{ 
     name R5-25-00-1_fuse_51; 
     phases CN; 
     from R5-25-00-1_node_155; 
     to R5-25-00-1_node_156; 
     current_limit 6; 
     status CLOSED; 
} 

object fuse:3859
{ 
     name R5-25-00-1_fuse_52; 
     phases BN; 
     from R5-25-00-1_node_719; 
     to R5-25-00-1_node_720; 
     current_limit 65; 
     status CLOSED; 
} 

object fuse:3860
{ 
     name R5-25-00-1_fuse_53; 
     phases ACN; 
     from R5-25-00-1_node_725; 
     to R5-25-00-1_node_726; 
     current_limit 65; 
     status CLOSED; 
} 

object fuse:3861
{ 
     name R5-25-00-1_fuse_54; 
     phases BN; 
     from R5-25-00-1_node_225; 
     to R5-25-00-1_node_168; 
     current_limit 6; 
     status CLOSED; 
} 

object fuse:3862
{ 
     name R5-25-00-1_fuse_55; 
     phases CN; 
     from R5-25-00-1_node_225; 
     to R5-25-00-1_node_742; 
     current_limit 6; 
     status CLOSED; 
} 

object fuse:3863
{ 
     name R5-25-00-1_fuse_56; 
     phases CN; 
     from R5-25-00-1_node_226; 
     to R5-25-00-1_node_147; 
     current_limit 6; 
     status CLOSED; 
} 

object fuse:3864
{ 
     name R5-25-00-1_fuse_57; 
     phases CN; 
     from R5-25-00-1_node_737; 
     to R5-25-00-1_node_747; 
     current_limit 65; 
     status CLOSED; 
} 

object fuse:3865
{ 
     name R5-25-00-1_fuse_58; 
     phases BN; 
     from R5-25-00-1_node_753; 
     to R5-25-00-1_node_239; 
     current_limit 25; 
     status CLOSED; 
} 

object fuse:3866
{ 
     name R5-25-00-1_fuse_59; 
     phases BN; 
     from R5-25-00-1_node_756; 
     to R5-25-00-1_node_722; 
     current_limit 25; 
     status CLOSED; 
} 

object fuse:3867
{ 
     name R5-25-00-1_fuse_60; 
     phases CN; 
     from R5-25-00-1_node_758; 
     to R5-25-00-1_node_759; 
     current_limit 65; 
     status CLOSED; 
} 

object fuse:3868
{ 
     name R5-25-00-1_fuse_61; 
     phases BN; 
     from R5-25-00-1_node_444; 
     to R5-25-00-1_node_146; 
     current_limit 65; 
     status CLOSED; 
} 

object fuse:3869
{ 
     name R5-25-00-1_fuse_62; 
     phases CN; 
     from R5-25-00-1_node_763; 
     to R5-25-00-1_node_762; 
     current_limit 65; 
     status CLOSED; 
} 

object fuse:3870
{ 
     name R5-25-00-1_fuse_63; 
     phases AN; 
     from R5-25-00-1_node_142; 
     to R5-25-00-1_node_143; 
     current_limit 65; 
     status CLOSED; 
} 

object fuse:3871
{ 
     name R5-25-00-1_fuse_64; 
     phases CN; 
     from R5-25-00-1_node_783; 
     to R5-25-00-1_node_784; 
     current_limit 65; 
     status CLOSED; 
} 

object fuse:3872
{ 
     name R5-25-00-1_fuse_65; 
     phases CN; 
     from R5-25-00-1_node_786; 
     to R5-25-00-1_node_787; 
     current_limit 65; 
     status CLOSED; 
} 

object fuse:3873
{ 
     name R5-25-00-1_fuse_66; 
     phases ABCN; 
     from R5-25-00-1_node_110; 
     to R5-25-00-1_node_34; 
     current_limit 8; 
     status CLOSED; 
} 

object fuse:3874
{ 
     name R5-25-00-1_fuse_67; 
     phases AN; 
     from R5-25-00-1_node_797; 
     to R5-25-00-1_node_798; 
     current_limit 65; 
     status CLOSED; 
} 

object fuse:3875
{ 
     name R5-25-00-1_fuse_68; 
     phases ABCN; 
     from R5-25-00-1_node_124; 
     to R5-25-00-1_node_801; 
     current_limit 65; 
     status CLOSED; 
} 

object fuse:3876
{ 
     name R5-25-00-1_fuse_69; 
     phases CN; 
     from R5-25-00-1_node_124; 
     to R5-25-00-1_node_73; 
     current_limit 65; 
     status CLOSED; 
} 

object fuse:3877
{ 
     name R5-25-00-1_fuse_70; 
     phases BN; 
     from R5-25-00-1_node_807; 
     to R5-25-00-1_node_808; 
     current_limit 65; 
     status CLOSED; 
} 

object fuse:3878
{ 
     name R5-25-00-1_fuse_71; 
     phases BN; 
     from R5-25-00-1_node_810; 
     to R5-25-00-1_node_811; 
     current_limit 65; 
     status CLOSED; 
} 

object fuse:3879
{ 
     name R5-25-00-1_fuse_72; 
     phases BN; 
     from R5-25-00-1_node_929; 
     to R5-25-00-1_node_813; 
     current_limit 65; 
     status CLOSED; 
} 

object fuse:3880
{ 
     name R5-25-00-1_fuse_73; 
     phases ABCN; 
     from R5-25-00-1_node_258; 
     to R5-25-00-1_node_257; 
     current_limit 80; 
     status CLOSED; 
} 

object fuse:3881
{ 
     name R5-25-00-1_fuse_74; 
     phases ABCN; 
     from R5-25-00-1_node_296; 
     to R5-25-00-1_node_295; 
     current_limit 65; 
     status CLOSED; 
} 

object fuse:3882
{ 
     name R5-25-00-1_fuse_75; 
     phases ABCN; 
     from R5-25-00-1_node_284; 
     to R5-25-00-1_node_283; 
     current_limit 65; 
     status CLOSED; 
} 

object line_configuration:31
{ 
     conductor_A underground_line_conductor:2; 
     conductor_N underground_line_conductor:2; 
     spacing line_spacing:17; 
} 

object line_configuration:32
{ 
     conductor_A underground_line_conductor:2; 
     conductor_B underground_line_conductor:2; 
     conductor_C underground_line_conductor:2; 
     conductor_N underground_line_conductor:2; 
     spacing line_spacing:18; 
} 

object line_configuration:33
{ 
     conductor_C underground_line_conductor:3; 
     conductor_N underground_line_conductor:3; 
     spacing line_spacing:19; 
} 

object line_configuration:34
{ 
     conductor_B underground_line_conductor:3; 
     conductor_N underground_line_conductor:3; 
     spacing line_spacing:20; 
} 

object line_configuration:35
{ 
     conductor_C underground_line_conductor:3; 
     conductor_N underground_line_conductor:3; 
     spacing line_spacing:19; 
} 

object line_configuration:36
{ 
     conductor_A underground_line_conductor:3; 
     conductor_B underground_line_conductor:3; 
     conductor_C underground_line_conductor:3; 
     conductor_N underground_line_conductor:3; 
     spacing line_spacing:18; 
} 

object line_configuration:37
{ 
     conductor_A underground_line_conductor:4; 
     conductor_B underground_line_conductor:4; 
     conductor_C underground_line_conductor:4; 
     conductor_N underground_line_conductor:4; 
     spacing line_spacing:18; 
} 

object line_configuration:38
{ 
     conductor_B underground_line_conductor:3; 
     conductor_C underground_line_conductor:3; 
     conductor_N underground_line_conductor:3; 
     spacing line_spacing:21; 
} 

object line_configuration:39
{ 
     conductor_A overhead_line_conductor:5; 
     conductor_B overhead_line_conductor:5; 
     conductor_C overhead_line_conductor:5; 
     conductor_N overhead_line_conductor:5; 
     spacing line_spacing:18; 
} 

object line_configuration:40
{ 
     conductor_A overhead_line_conductor:6; 
     conductor_B overhead_line_conductor:6; 
     conductor_C overhead_line_conductor:6; 
     conductor_N overhead_line_conductor:6; 
     spacing line_spacing:18; 
} 

object line_configuration:41
{ 
     conductor_A underground_line_conductor:2; 
     conductor_B underground_line_conductor:2; 
     conductor_N underground_line_conductor:2; 
     spacing line_spacing:22; 
} 

object line_configuration:42
{ 
     conductor_A overhead_line_conductor:7; 
     conductor_N overhead_line_conductor:7; 
     spacing line_spacing:17; 
} 

object line_configuration:43
{ 
     conductor_B underground_line_conductor:3; 
     conductor_N underground_line_conductor:3; 
     spacing line_spacing:20; 
} 

object line_configuration:44
{ 
     conductor_B underground_line_conductor:3; 
     conductor_C underground_line_conductor:3; 
     conductor_N underground_line_conductor:3; 
     spacing line_spacing:21; 
} 

object line_configuration:45
{ 
     conductor_A overhead_line_conductor:8; 
     conductor_B overhead_line_conductor:8; 
     conductor_C overhead_line_conductor:8; 
     conductor_N overhead_line_conductor:8; 
     spacing line_spacing:18; 
} 

object line_configuration:46
{ 
     conductor_A overhead_line_conductor:9; 
     conductor_B overhead_line_conductor:9; 
     conductor_C overhead_line_conductor:9; 
     conductor_N overhead_line_conductor:9; 
     spacing line_spacing:18; 
} 

object line_configuration:47
{ 
     conductor_A underground_line_conductor:10; 
     conductor_N underground_line_conductor:10; 
     spacing line_spacing:17; 
} 

object line_configuration:48
{ 
     conductor_C underground_line_conductor:3; 
     conductor_N underground_line_conductor:3; 
     spacing line_spacing:19; 
} 

object line_configuration:49
{ 
     conductor_A overhead_line_conductor:7; 
     conductor_C overhead_line_conductor:7; 
     conductor_N overhead_line_conductor:7; 
     spacing line_spacing:23; 
} 

object line_configuration:50
{ 
     conductor_A overhead_line_conductor:6; 
     conductor_N overhead_line_conductor:6; 
     spacing line_spacing:17; 
} 

object line_configuration:51
{ 
     conductor_A overhead_line_conductor:7; 
     conductor_B overhead_line_conductor:7; 
     conductor_C overhead_line_conductor:7; 
     conductor_N overhead_line_conductor:7; 
     spacing line_spacing:18; 
} 

object line_configuration:52
{ 
     conductor_A overhead_line_conductor:9; 
     conductor_B overhead_line_conductor:9; 
     conductor_C overhead_line_conductor:9; 
     conductor_N overhead_line_conductor:9; 
     spacing line_spacing:18; 
} 

object line_configuration:53
{ 
     conductor_A overhead_line_conductor:8; 
     conductor_B overhead_line_conductor:8; 
     conductor_C overhead_line_conductor:8; 
     conductor_N overhead_line_conductor:8; 
     spacing line_spacing:18; 
} 

object line_configuration:54
{ 
     conductor_A overhead_line_conductor:7; 
     conductor_B overhead_line_conductor:7; 
     conductor_C overhead_line_conductor:7; 
     conductor_N overhead_line_conductor:7; 
     spacing line_spacing:18; 
} 

object line_configuration:55
{ 
     conductor_A underground_line_conductor:11; 
     conductor_B underground_line_conductor:11; 
     conductor_C underground_line_conductor:11; 
     conductor_N underground_line_conductor:11; 
     spacing line_spacing:18; 
} 

object line_configuration:56
{ 
     conductor_A underground_line_conductor:12; 
     conductor_B underground_line_conductor:12; 
     conductor_C underground_line_conductor:12; 
     conductor_N underground_line_conductor:12; 
     spacing line_spacing:18; 
} 

object line_configuration:57
{ 
     conductor_C overhead_line_conductor:13; 
     conductor_N overhead_line_conductor:13; 
     spacing line_spacing:24; 
} 

object line_configuration:58
{ 
     conductor_B overhead_line_conductor:13; 
     conductor_N overhead_line_conductor:13; 
     spacing line_spacing:25; 
} 

object line_configuration:59
{ 
     conductor_A overhead_line_conductor:7; 
     conductor_B overhead_line_conductor:7; 
     conductor_C overhead_line_conductor:7; 
     conductor_N overhead_line_conductor:7; 
     spacing line_spacing:18; 
} 

object line_configuration:60
{ 
     conductor_A overhead_line_conductor:13; 
     conductor_B overhead_line_conductor:13; 
     conductor_C overhead_line_conductor:13; 
     conductor_N overhead_line_conductor:13; 
     spacing line_spacing:26; 
} 

object line_configuration:61
{ 
     conductor_A overhead_line_conductor:13; 
     conductor_N overhead_line_conductor:13; 
     spacing line_spacing:27; 
} 

object line_configuration:62
{ 
     conductor_B overhead_line_conductor:13; 
     conductor_C overhead_line_conductor:13; 
     conductor_N overhead_line_conductor:13; 
     spacing line_spacing:28; 
} 

object line_configuration:63
{ 
     conductor_A overhead_line_conductor:13; 
     conductor_B overhead_line_conductor:13; 
     conductor_N overhead_line_conductor:13; 
     spacing line_spacing:29; 
} 

object line_configuration:64
{ 
     conductor_A overhead_line_conductor:13; 
     conductor_C overhead_line_conductor:13; 
     conductor_N overhead_line_conductor:13; 
     spacing line_spacing:30; 
} 

object line_spacing:17
{ 
     distance_AN 36.0 in; 
} 

object line_spacing:18
{ 
     distance_AB 48.0 in; 
     distance_BC 48.0 in; 
     distance_AC 48.0 in; 
     distance_AN 36.0 in; 
     distance_BN 36.0 in; 
     distance_CN 36.0 in; 
} 

object line_spacing:19
{ 
     distance_CN 36.0 in; 
} 

object line_spacing:20
{ 
     distance_BN 36.0 in; 
} 

object line_spacing:21
{ 
     distance_BC 48.0 in; 
     distance_BN 36.0 in; 
     distance_CN 36.0 in; 
} 

object line_spacing:22
{ 
     distance_AB 48.0 in; 
     distance_AN 36.0 in; 
     distance_BN 36.0 in; 
} 

object line_spacing:23
{ 
     distance_AC 48.0 in; 
     distance_AN 36.0 in; 
     distance_CN 36.0 in; 
} 

object line_spacing:24
{ 
     distance_CN 48.0 in; 
} 

object line_spacing:25
{ 
     distance_BN 48.0 in; 
} 

object line_spacing:26
{ 
     distance_AB 56.0 in; 
     distance_BC 56.0 in; 
     distance_AC 56.0 in; 
     distance_AN 48.0 in; 
     distance_BN 48.0 in; 
     distance_CN 48.0 in; 
} 

object line_spacing:27
{ 
     distance_AN 48.0 in; 
} 

object line_spacing:28
{ 
     distance_BC 56.0 in; 
     distance_BN 48.0 in; 
     distance_CN 48.0 in; 
} 

object line_spacing:29
{ 
     distance_AB 56.0 in; 
     distance_AN 48.0 in; 
     distance_BN 48.0 in; 
} 

object line_spacing:30
{ 
     distance_AC 56.0 in; 
     distance_AN 48.0 in; 
     distance_CN 48.0 in; 
} 

object load:1017
{ 
     name R5-25-00-1_load_1; 
     parent R5-25-00-1_meter_1; 
     phases ABCN; 
     voltage_A 13221.32+0.0j; 
     voltage_B -6610.66-11450j; 
     voltage_C -6610.66+11450j; 
     constant_power_A 70000+35000j; 
     constant_power_B 70000+35000j; 
     constant_power_C 70000+35000j; 
     nominal_voltage 13221.32; 
     load_class C;
} 

object load:1018
{ 
     name R5-25-00-1_load_2; 
     parent R5-25-00-1_meter_2; 
     phases ABCN; 
     voltage_A 13221.32+0.0j; 
     voltage_B -6610.66-11450j; 
     voltage_C -6610.66+11450j; 
     constant_power_A 70000+35000j; 
     constant_power_B 70000+35000j; 
     constant_power_C 70000+35000j; 
     nominal_voltage 13221.32; 
     load_class C; 
} 

object load:1019
{ 
     name R5-25-00-1_load_3; 
     parent R5-25-00-1_meter_3; 
     phases ABCN; 
     voltage_A 13221.32+0.0j; 
     voltage_B -6610.66-11450j; 
     voltage_C -6610.66+11450j; 
     constant_power_A 199800+96765.36j; 
     constant_power_B 199800+96765.36j; 
     constant_power_C 199800+96765.36j; 
     nominal_voltage 13221.32; 
     load_class C; 
} 

object load:1020
{ 
     name R5-25-00-1_load_4; 
     parent R5-25-00-1_meter_4; 
     phases ABCN; 
     voltage_A 13221.32+0.0j; 
     voltage_B -6610.66-11450j; 
     voltage_C -6610.66+11450j; 
     constant_power_A 20000+10000j; 
     constant_power_B 20000+10000j; 
     constant_power_C 20000+10000j; 
     nominal_voltage 13221.32; 
     load_class C; 
} 

object load:1021
{ 
     name R5-25-00-1_load_5; 
     parent R5-25-00-1_meter_5; 
     phases ABCN; 
     voltage_A 13221.32+0.0j; 
     voltage_B -6610.66-11450j; 
     voltage_C -6610.66+11450j; 
     constant_power_A 30000+15000j; 
     constant_power_B 30000+15000j; 
     constant_power_C 30000+15000j; 
     nominal_voltage 13221.32; 
     load_class C; 
} 

object load:1022
{ 
     name R5-25-00-1_load_6; 
     parent R5-25-00-1_meter_6; 
     phases AN; 
     voltage_A 13221.32+0.0j; 
     constant_power_A 40000+20000j; 
     nominal_voltage 13221.32; 
     load_class C; 
} 

object load:1023
{ 
     name R5-25-00-1_load_7; 
     parent R5-25-00-1_meter_7; 
     phases ABCN; 
     voltage_A 13221.32+0.0j; 
     voltage_B -6610.66-11450j; 
     voltage_C -6610.66+11450j; 
     constant_power_A 20000+10000j; 
     constant_power_B 20000+10000j; 
     constant_power_C 20000+10000j; 
     nominal_voltage 13221.32; 
     load_class C; 
} 

object load:1024
{ 
     name R5-25-00-1_load_8; 
     parent R5-25-00-1_meter_8; 
     phases ABCN; 
     voltage_A 13221.32+0.0j; 
     voltage_B -6610.66-11450j; 
     voltage_C -6610.66+11450j; 
     constant_power_A 70000+35000j; 
     constant_power_B 70000+35000j; 
     constant_power_C 70000+35000j; 
     nominal_voltage 13221.32; 
     load_class C; 
} 

object load:1025
{ 
     name R5-25-00-1_load_9; 
     parent R5-25-00-1_meter_9; 
     phases ABCN; 
     voltage_A 13221.32+0.0j; 
     voltage_B -6610.66-11450j; 
     voltage_C -6610.66+11450j; 
     constant_power_A 100000+50000j; 
     constant_power_B 100000+50000j; 
     constant_power_C 100000+50000j; 
     nominal_voltage 13221.32; 
     load_class C; 
} 

object load:1026
{ 
     name R5-25-00-1_load_10; 
     parent R5-25-00-1_meter_10; 
     phases ABCN; 
     voltage_A 13221.32+0.0j; 
     voltage_B -6610.66-11450j; 
     voltage_C -6610.66+11450j; 
     constant_power_A 30000+15000j; 
     constant_power_B 30000+15000j; 
     constant_power_C 30000+15000j; 
     nominal_voltage 13221.32; 
     load_class C; 
} 

object load:1027
{ 
     name R5-25-00-1_load_11; 
     parent R5-25-00-1_meter_11; 
     phases ABCN; 
     voltage_A 13221.32+0.0j; 
     voltage_B -6610.66-11450j; 
     voltage_C -6610.66+11450j; 
     constant_power_A 40000+20000j; 
     constant_power_B 40000+20000j; 
     constant_power_C 40000+20000j; 
     nominal_voltage 13221.32; 
     load_class C; 
} 

object load:1028
{ 
     name R5-25-00-1_load_12; 
     parent R5-25-00-1_meter_12; 
     phases ABN; 
     voltage_A 13221.32+0.0j; 
     voltage_B -6610.66-11450j; 
     constant_power_A 20000+10000j; 
     constant_power_B 10000+5000j; 
     nominal_voltage 13221.32; 
     load_class C; 
} 

object load:1029
{ 
     name R5-25-00-1_load_13; 
     parent R5-25-00-1_meter_13; 
     phases ABN; 
     voltage_A 13221.32+0.0j; 
     voltage_B -6610.66-11450j; 
     constant_power_A 20000+10000j; 
     constant_power_B 10000+5000j; 
     nominal_voltage 13221.32; 
     load_class C; 
} 

object load:1030
{ 
     name R5-25-00-1_load_14; 
     parent R5-25-00-1_meter_14; 
     phases CN; 
     voltage_C -6610.66+11450j; 
     constant_power_C 30000+15000j; 
     nominal_voltage 13221.32; 
     load_class C;
} 

object meter:2141
{ 
     name R5-25-00-1_meter_1; 
     phases ABCN; 
     voltage_A 13221.32+0.0j; 
     voltage_B -6610.66-11450j; 
     voltage_C -6610.66+11450j; 
     nominal_voltage 13221.32;
} 

object meter:2142
{ 
     name R5-25-00-1_meter_2; 
     phases ABCN; 
     voltage_A 13221.32+0.0j; 
     voltage_B -6610.66-11450j; 
     voltage_C -6610.66+11450j; 
     nominal_voltage 13221.32; 
} 

object meter:2143
{ 
     name R5-25-00-1_meter_3; 
     phases ABCN; 
     voltage_A 13221.32+0.0j; 
     voltage_B -6610.66-11450j; 
     voltage_C -6610.66+11450j; 
     nominal_voltage 13221.32; 
} 

object meter:2144
{ 
     name R5-25-00-1_meter_4; 
     phases ABCN; 
     voltage_A 13221.32+0.0j; 
     voltage_B -6610.66-11450j; 
     voltage_C -6610.66+11450j; 
     nominal_voltage 13221.32; 
} 

object meter:2145
{ 
     name R5-25-00-1_meter_5; 
     phases ABCN; 
     voltage_A 13221.32+0.0j; 
     voltage_B -6610.66-11450j; 
     voltage_C -6610.66+11450j; 
     nominal_voltage 13221.32; 
} 

object meter:2146
{ 
     name R5-25-00-1_meter_6; 
     phases AN; 
     voltage_A 13221.32+0.0j; 
     nominal_voltage 13221.32; 
} 

object meter:2147
{ 
     name R5-25-00-1_meter_7; 
     phases ABCN; 
     voltage_A 13221.32+0.0j; 
     voltage_B -6610.66-11450j; 
     voltage_C -6610.66+11450j; 
     nominal_voltage 13221.32; 
} 

object meter:2148
{ 
     name R5-25-00-1_meter_8; 
     phases ABCN; 
     voltage_A 13221.32+0.0j; 
     voltage_B -6610.66-11450j; 
     voltage_C -6610.66+11450j; 
     nominal_voltage 13221.32; 
} 

object meter:2149
{ 
     name R5-25-00-1_meter_9; 
     phases ABCN; 
     voltage_A 13221.32+0.0j; 
     voltage_B -6610.66-11450j; 
     voltage_C -6610.66+11450j; 
     nominal_voltage 13221.32; 
} 

object meter:2150
{ 
     name R5-25-00-1_meter_10; 
     phases ABCN; 
     voltage_A 13221.32+0.0j; 
     voltage_B -6610.66-11450j; 
     voltage_C -6610.66+11450j; 
     nominal_voltage 13221.32; 
} 

object meter:2151
{ 
     name R5-25-00-1_meter_11; 
     phases ABCN; 
     voltage_A 13221.32+0.0j; 
     voltage_B -6610.66-11450j; 
     voltage_C -6610.66+11450j; 
     nominal_voltage 13221.32; 
} 

object meter:2152
{ 
     name R5-25-00-1_meter_12; 
     phases ABN; 
     voltage_A 13221.32+0.0j; 
     voltage_B -6610.66-11450j; 
     nominal_voltage 13221.32; 
} 

object meter:2153
{ 
     name R5-25-00-1_meter_13; 
     phases ABN; 
     voltage_A 13221.32+0.0j; 
     voltage_B -6610.66-11450j; 
     nominal_voltage 13221.32; 
} 

object meter:2154
{ 
     name R5-25-00-1_meter_14; 
     phases CN; 
     voltage_C -6610.66+11450j; 
     nominal_voltage 13221.32;
} 

// Meter at feeder 
object meter:3919
{ 
     name R5-25-00-1_meter_15; 
     phases ABCN; 
     nominal_voltage 13221.32; 
     voltage_A 13221.32+0.0j; 
     voltage_B -6610.66-11450j; 
     voltage_C -6610.66+11450j; 
} 

object node:65
{ 
     name R5-25-00-1_node_1; 
     parent R5-25-00-1_meter_15; 
     phases ABCN; 
     voltage_A 13221.32+0.0j; 
     voltage_B -6610.66-11450j; 
     voltage_C -6610.66+11450j; 
     nominal_voltage 13221.32; 
} 

object node:66
{ 
     name R5-25-00-1_node_2; 
     phases ABCN; 
     voltage_A 13221.32+0.0j; 
     voltage_B -6610.66-11450j; 
     voltage_C -6610.66+11450j; 
     nominal_voltage 13221.32; 
} 

object node:67
{ 
     name R5-25-00-1_node_3; 
     phases ABCN; 
     voltage_A 13221.32+0.0j; 
     voltage_B -6610.66-11450j; 
     voltage_C -6610.66+11450j; 
     nominal_voltage 13221.32; 
} 

object node:68
{ 
     name R5-25-00-1_node_4; 
     phases ABCN; 
     voltage_A 13221.32+0.0j; 
     voltage_B -6610.66-11450j; 
     voltage_C -6610.66+11450j; 
     nominal_voltage 13221.32; 
} 

object node:69
{ 
     name R5-25-00-1_node_5; 
     phases ABCN; 
     voltage_A 13221.32+0.0j; 
     voltage_B -6610.66-11450j; 
     voltage_C -6610.66+11450j; 
     nominal_voltage 13221.32; 
} 

object node:70
{ 
     name R5-25-00-1_node_6; 
     phases ABCN; 
     voltage_A 13221.32+0.0j; 
     voltage_B -6610.66-11450j; 
     voltage_C -6610.66+11450j; 
     nominal_voltage 13221.32; 
} 

object node:71
{ 
     name R5-25-00-1_node_7; 
     phases AN; 
     voltage_A 13221.32+0.0j; 
     nominal_voltage 13221.32; 
} 

object node:72
{ 
     name R5-25-00-1_node_8; 
     phases CN; 
     voltage_C -6610.66+11450j; 
     nominal_voltage 13221.32; 
} 

object node:73
{ 
     name R5-25-00-1_node_9; 
     phases CN; 
     voltage_C -6610.66+11450j; 
     nominal_voltage 13221.32; 
} 

object node:74
{ 
     name R5-25-00-1_node_10; 
     phases CN; 
     voltage_C -6610.66+11450j; 
     nominal_voltage 13221.32; 
} 

object node:75
{ 
     name R5-25-00-1_node_11; 
     phases CN; 
     voltage_C -6610.66+11450j; 
     nominal_voltage 13221.32; 
} 

object node:76
{ 
     name R5-25-00-1_node_12; 
     phases ABCN; 
     voltage_A 13221.32+0.0j; 
     voltage_B -6610.66-11450j; 
     voltage_C -6610.66+11450j; 
     nominal_voltage 13221.32; 
} 

object node:77
{ 
     name R5-25-00-1_node_13; 
     phases ABCN; 
     voltage_A 13221.32+0.0j; 
     voltage_B -6610.66-11450j; 
     voltage_C -6610.66+11450j; 
     nominal_voltage 13221.32; 
} 

object node:78
{ 
     name R5-25-00-1_node_14; 
     phases ABCN; 
     voltage_A 13221.32+0.0j; 
     voltage_B -6610.66-11450j; 
     voltage_C -6610.66+11450j; 
     nominal_voltage 13221.32; 
} 

object node:79
{ 
     name R5-25-00-1_node_15; 
     phases CN; 
     voltage_C -6610.66+11450j; 
     nominal_voltage 13221.32; 
} 

object node:80
{ 
     name R5-25-00-1_node_16; 
     phases ABCN; 
     voltage_A 13221.32+0.0j; 
     voltage_B -6610.66-11450j; 
     voltage_C -6610.66+11450j; 
     nominal_voltage 13221.32; 
} 

object node:81
{ 
     name R5-25-00-1_node_17; 
     phases ABCN; 
     voltage_A 13221.32+0.0j; 
     voltage_B -6610.66-11450j; 
     voltage_C -6610.66+11450j; 
     nominal_voltage 13221.32; 
} 

object node:82
{ 
     name R5-25-00-1_node_18; 
     phases ABCN; 
     voltage_A 13221.32+0.0j; 
     voltage_B -6610.66-11450j; 
     voltage_C -6610.66+11450j; 
     nominal_voltage 13221.32; 
} 

object node:83
{ 
     name R5-25-00-1_node_19; 
     phases ABCN; 
     voltage_A 13221.32+0.0j; 
     voltage_B -6610.66-11450j; 
     voltage_C -6610.66+11450j; 
     nominal_voltage 13221.32; 
} 

object node:84
{ 
     name R5-25-00-1_node_20; 
     phases ABCN; 
     voltage_A 13221.32+0.0j; 
     voltage_B -6610.66-11450j; 
     voltage_C -6610.66+11450j; 
     nominal_voltage 13221.32; 
} 

object node:85
{ 
     name R5-25-00-1_node_21; 
     phases ABCN; 
     voltage_A 13221.32+0.0j; 
     voltage_B -6610.66-11450j; 
     voltage_C -6610.66+11450j; 
     nominal_voltage 13221.32; 
} 

object node:86
{ 
     name R5-25-00-1_node_22; 
     phases ABCN; 
     voltage_A 13221.32+0.0j; 
     voltage_B -6610.66-11450j; 
     voltage_C -6610.66+11450j; 
     nominal_voltage 13221.32; 
} 

object node:87
{ 
     name R5-25-00-1_node_23; 
     phases AN; 
     voltage_A 13221.32+0.0j; 
     nominal_voltage 13221.32; 
} 

object node:88
{ 
     name R5-25-00-1_node_24; 
     phases ABCN; 
     voltage_A 13221.32+0.0j; 
     voltage_B -6610.66-11450j; 
     voltage_C -6610.66+11450j; 
     nominal_voltage 13221.32; 
} 

object node:89
{ 
     name R5-25-00-1_node_25; 
     phases ABCN; 
     voltage_A 13221.32+0.0j; 
     voltage_B -6610.66-11450j; 
     voltage_C -6610.66+11450j; 
     nominal_voltage 13221.32; 
} 

object node:90
{ 
     name R5-25-00-1_node_26; 
     phases ABCN; 
     voltage_A 13221.32+0.0j; 
     voltage_B -6610.66-11450j; 
     voltage_C -6610.66+11450j; 
     nominal_voltage 13221.32; 
} 

object node:91
{ 
     name R5-25-00-1_node_27; 
     phases ABCN; 
     voltage_A 13221.32+0.0j; 
     voltage_B -6610.66-11450j; 
     voltage_C -6610.66+11450j; 
     nominal_voltage 13221.32; 
} 

object node:92
{ 
     name R5-25-00-1_node_28; 
     phases ABCN; 
     voltage_A 13221.32+0.0j; 
     voltage_B -6610.66-11450j; 
     voltage_C -6610.66+11450j; 
     nominal_voltage 13221.32; 
} 

object node:93
{ 
     name R5-25-00-1_node_29; 
     phases BN; 
     voltage_B -6610.66-11450j; 
     nominal_voltage 13221.32; 
} 

object node:94
{ 
     name R5-25-00-1_node_30; 
     phases AN; 
     voltage_A 13221.32+0.0j; 
     nominal_voltage 13221.32; 
} 

object node:95
{ 
     name R5-25-00-1_node_31; 
     phases ABCN; 
     voltage_A 13221.32+0.0j; 
     voltage_B -6610.66-11450j; 
     voltage_C -6610.66+11450j; 
     nominal_voltage 13221.32; 
} 

object node:96
{ 
     name R5-25-00-1_node_32; 
     phases AN; 
     voltage_A 13221.32+0.0j; 
     nominal_voltage 13221.32; 
} 

object node:97
{ 
     name R5-25-00-1_node_33; 
     phases ABCN; 
     voltage_A 13221.32+0.0j; 
     voltage_B -6610.66-11450j; 
     voltage_C -6610.66+11450j; 
     nominal_voltage 13221.32; 
} 

object node:98
{ 
     name R5-25-00-1_node_34; 
     phases ABCN; 
     voltage_A 13221.32+0.0j; 
     voltage_B -6610.66-11450j; 
     voltage_C -6610.66+11450j; 
     nominal_voltage 13221.32; 
} 

object node:99
{ 
     name R5-25-00-1_node_35; 
     phases BN; 
     voltage_B -6610.66-11450j; 
     nominal_voltage 13221.32; 
} 

object node:100
{ 
     name R5-25-00-1_node_36; 
     phases BN; 
     voltage_B -6610.66-11450j; 
     nominal_voltage 13221.32; 
} 

object node:101
{ 
     name R5-25-00-1_node_37; 
     phases BN; 
     voltage_B -6610.66-11450j; 
     nominal_voltage 13221.32; 
} 

object node:102
{ 
     name R5-25-00-1_node_38; 
     phases BN; 
     voltage_B -6610.66-11450j; 
     nominal_voltage 13221.32; 
} 

object node:103
{ 
     name R5-25-00-1_node_39; 
     phases BN; 
     voltage_B -6610.66-11450j; 
     nominal_voltage 13221.32; 
} 

object node:104
{ 
     name R5-25-00-1_node_40; 
     phases CN; 
     voltage_C -6610.66+11450j; 
     nominal_voltage 13221.32; 
} 

object node:105
{ 
     name R5-25-00-1_node_41; 
     phases BN; 
     voltage_B -6610.66-11450j; 
     nominal_voltage 13221.32; 
} 

object node:106
{ 
     name R5-25-00-1_node_42; 
     phases BN; 
     voltage_B -6610.66-11450j; 
     nominal_voltage 13221.32; 
} 

object node:107
{ 
     name R5-25-00-1_node_43; 
     phases BN; 
     voltage_B -6610.66-11450j; 
     nominal_voltage 13221.32; 
} 

object node:108
{ 
     name R5-25-00-1_node_44; 
     phases BN; 
     voltage_B -6610.66-11450j; 
     nominal_voltage 13221.32; 
} 

object node:109
{ 
     name R5-25-00-1_node_45; 
     phases BN; 
     voltage_B -6610.66-11450j; 
     nominal_voltage 13221.32; 
} 

object node:110
{ 
     name R5-25-00-1_node_46; 
     phases BN; 
     voltage_B -6610.66-11450j; 
     nominal_voltage 13221.32; 
} 

object node:111
{ 
     name R5-25-00-1_node_47; 
     phases AN; 
     voltage_A 13221.32+0.0j; 
     nominal_voltage 13221.32; 
} 

object node:112
{ 
     name R5-25-00-1_node_48; 
     phases AN; 
     voltage_A 13221.32+0.0j; 
     nominal_voltage 13221.32; 
} 

object node:113
{ 
     name R5-25-00-1_node_49; 
     phases AN; 
     voltage_A 13221.32+0.0j; 
     nominal_voltage 13221.32; 
} 

object node:114
{ 
     name R5-25-00-1_node_50; 
     phases AN; 
     voltage_A 13221.32+0.0j; 
     nominal_voltage 13221.32; 
} 

object node:115
{ 
     name R5-25-00-1_node_51; 
     phases AN; 
     voltage_A 13221.32+0.0j; 
     nominal_voltage 13221.32; 
} 

object node:116
{ 
     name R5-25-00-1_node_52; 
     phases ABCN; 
     voltage_A 13221.32+0.0j; 
     voltage_B -6610.66-11450j; 
     voltage_C -6610.66+11450j; 
     nominal_voltage 13221.32; 
} 

object node:117
{ 
     name R5-25-00-1_node_53; 
     phases ABCN; 
     voltage_A 13221.32+0.0j; 
     voltage_B -6610.66-11450j; 
     voltage_C -6610.66+11450j; 
     nominal_voltage 13221.32; 
} 

object node:118
{ 
     name R5-25-00-1_node_54; 
     phases ABCN; 
     voltage_A 13221.32+0.0j; 
     voltage_B -6610.66-11450j; 
     voltage_C -6610.66+11450j; 
     nominal_voltage 13221.32; 
} 

object node:119
{ 
     name R5-25-00-1_node_55; 
     phases ABCN; 
     voltage_A 13221.32+0.0j; 
     voltage_B -6610.66-11450j; 
     voltage_C -6610.66+11450j; 
     nominal_voltage 13221.32; 
} 

object node:120
{ 
     name R5-25-00-1_node_56; 
     phases ABCN; 
     voltage_A 13221.32+0.0j; 
     voltage_B -6610.66-11450j; 
     voltage_C -6610.66+11450j; 
     nominal_voltage 13221.32; 
} 

object node:121
{ 
     name R5-25-00-1_node_57; 
     phases ABCN; 
     voltage_A 13221.32+0.0j; 
     voltage_B -6610.66-11450j; 
     voltage_C -6610.66+11450j; 
     nominal_voltage 13221.32; 
} 

object node:122
{ 
     name R5-25-00-1_node_58; 
     phases ABCN; 
     voltage_A 13221.32+0.0j; 
     voltage_B -6610.66-11450j; 
     voltage_C -6610.66+11450j; 
     nominal_voltage 13221.32; 
} 

object node:123
{ 
     name R5-25-00-1_node_59; 
     phases AN; 
     voltage_A 13221.32+0.0j; 
     nominal_voltage 13221.32; 
} 

object node:124
{ 
     name R5-25-00-1_node_60; 
     phases BN; 
     voltage_B -6610.66-11450j; 
     nominal_voltage 13221.32; 
} 

object node:125
{ 
     name R5-25-00-1_node_61; 
     phases ABN; 
     voltage_A 13221.32+0.0j; 
     voltage_B -6610.66-11450j; 
     nominal_voltage 13221.32; 
} 

object node:126
{ 
     name R5-25-00-1_node_62; 
     phases CN; 
     voltage_C -6610.66+11450j; 
     nominal_voltage 13221.32; 
} 

object node:127
{ 
     name R5-25-00-1_node_63; 
     phases CN; 
     voltage_C -6610.66+11450j; 
     nominal_voltage 13221.32; 
} 

object node:128
{ 
     name R5-25-00-1_node_64; 
     phases CN; 
     voltage_C -6610.66+11450j; 
     nominal_voltage 13221.32; 
} 

object node:129
{ 
     name R5-25-00-1_node_65; 
     phases CN; 
     voltage_C -6610.66+11450j; 
     nominal_voltage 13221.32; 
} 

object node:130
{ 
     name R5-25-00-1_node_66; 
     phases CN; 
     voltage_C -6610.66+11450j; 
     nominal_voltage 13221.32; 
} 

object node:131
{ 
     name R5-25-00-1_node_67; 
     phases BN; 
     voltage_B -6610.66-11450j; 
     nominal_voltage 13221.32; 
} 

object node:132
{ 
     name R5-25-00-1_node_68; 
     phases ABN; 
     voltage_A 13221.32+0.0j; 
     voltage_B -6610.66-11450j; 
     nominal_voltage 13221.32; 
} 

object node:133
{ 
     name R5-25-00-1_node_69; 
     phases BN; 
     voltage_B -6610.66-11450j; 
     nominal_voltage 13221.32; 
} 

object node:134
{ 
     name R5-25-00-1_node_70; 
     phases BN; 
     voltage_B -6610.66-11450j; 
     nominal_voltage 13221.32;
} 

object node:135
{ 
     name R5-25-00-1_node_71; 
     phases BN; 
     voltage_B -6610.66-11450j; 
     nominal_voltage 13221.32; 
} 

object node:136
{ 
     name R5-25-00-1_node_72; 
     phases CN; 
     voltage_C -6610.66+11450j; 
     nominal_voltage 13221.32; 
} 

object node:137
{ 
     name R5-25-00-1_node_73; 
     phases CN; 
     voltage_C -6610.66+11450j; 
     nominal_voltage 13221.32; 
} 

object node:138
{ 
     name R5-25-00-1_node_74; 
     phases CN; 
     voltage_C -6610.66+11450j; 
     nominal_voltage 13221.32; 
} 

object node:139
{ 
     name R5-25-00-1_node_75; 
     phases AN; 
     voltage_A 13221.32+0.0j; 
     nominal_voltage 13221.32; 
} 

object node:140
{ 
     name R5-25-00-1_node_76; 
     phases AN; 
     voltage_A 13221.32+0.0j; 
     nominal_voltage 13221.32; 
} 

object node:141
{ 
     name R5-25-00-1_node_77; 
     phases BCN; 
     voltage_B -6610.66-11450j; 
     voltage_C -6610.66+11450j; 
     nominal_voltage 13221.32; 
} 

object node:142
{ 
     name R5-25-00-1_node_78; 
     phases AN; 
     voltage_A 13221.32+0.0j; 
     nominal_voltage 13221.32; 
} 

object node:143
{ 
     name R5-25-00-1_node_79; 
     phases BN; 
     voltage_B -6610.66-11450j; 
     nominal_voltage 13221.32; 
} 

object node:144
{ 
     name R5-25-00-1_node_80; 
     phases ABN; 
     voltage_A 13221.32+0.0j; 
     voltage_B -6610.66-11450j; 
     nominal_voltage 13221.32; 
} 

object node:145
{ 
     name R5-25-00-1_node_81; 
     phases BN; 
     voltage_B -6610.66-11450j; 
     nominal_voltage 13221.32; 
} 

object node:146
{ 
     name R5-25-00-1_node_82; 
     phases BN; 
     voltage_B -6610.66-11450j; 
     nominal_voltage 13221.32; 
} 

object node:147
{ 
     name R5-25-00-1_node_83; 
     phases BN; 
     voltage_B -6610.66-11450j; 
     nominal_voltage 13221.32; 
} 

object node:148
{ 
     name R5-25-00-1_node_84; 
     phases BN; 
     voltage_B -6610.66-11450j; 
     nominal_voltage 13221.32; 
} 

object node:149
{ 
     name R5-25-00-1_node_85; 
     phases AN; 
     voltage_A 13221.32+0.0j; 
     nominal_voltage 13221.32; 
} 

object node:150
{ 
     name R5-25-00-1_node_86; 
     phases AN; 
     voltage_A 13221.32+0.0j; 
     nominal_voltage 13221.32; 
} 

object node:151
{ 
     name R5-25-00-1_node_87; 
     phases BN; 
     voltage_B -6610.66-11450j; 
     nominal_voltage 13221.32; 
} 

object node:152
{ 
     name R5-25-00-1_node_88; 
     phases BN; 
     voltage_B -6610.66-11450j; 
     nominal_voltage 13221.32; 
} 

object node:153
{ 
     name R5-25-00-1_node_89; 
     phases BN; 
     voltage_B -6610.66-11450j; 
     nominal_voltage 13221.32; 
} 

object node:154
{ 
     name R5-25-00-1_node_90; 
     phases BN; 
     voltage_B -6610.66-11450j; 
     nominal_voltage 13221.32; 
} 

object node:155
{ 
     name R5-25-00-1_node_91; 
     phases BN; 
     voltage_B -6610.66-11450j; 
     nominal_voltage 13221.32; 
} 

object node:156
{ 
     name R5-25-00-1_node_92; 
     phases BN; 
     voltage_B -6610.66-11450j; 
     nominal_voltage 13221.32; 
} 

object node:157
{ 
     name R5-25-00-1_node_93; 
     phases BN; 
     voltage_B -6610.66-11450j; 
     nominal_voltage 13221.32; 
} 

object node:158
{ 
     name R5-25-00-1_node_94; 
     phases AN; 
     voltage_A 13221.32+0.0j; 
     nominal_voltage 13221.32; 
} 

object node:159
{ 
     name R5-25-00-1_node_95; 
     phases BN; 
     voltage_B -6610.66-11450j; 
     nominal_voltage 13221.32; 
} 

object node:160
{ 
     name R5-25-00-1_node_96; 
     phases BN; 
     voltage_B -6610.66-11450j; 
     nominal_voltage 13221.32; 
} 

object node:161
{ 
     name R5-25-00-1_node_97; 
     phases BN; 
     voltage_B -6610.66-11450j; 
     nominal_voltage 13221.32; 
} 

object node:162
{ 
     name R5-25-00-1_node_98; 
     phases CN; 
     voltage_C -6610.66+11450j; 
     nominal_voltage 13221.32; 
} 

object node:163
{ 
     name R5-25-00-1_node_99; 
     phases BN; 
     voltage_B -6610.66-11450j; 
     nominal_voltage 13221.32; 
} 

object node:164
{ 
     name R5-25-00-1_node_100; 
     phases BN; 
     voltage_B -6610.66-11450j; 
     nominal_voltage 13221.32; 
} 

object node:165
{ 
     name R5-25-00-1_node_101; 
     phases ABN; 
     voltage_A 13221.32+0.0j; 
     voltage_B -6610.66-11450j; 
     nominal_voltage 13221.32; 
} 

object node:166
{ 
     name R5-25-00-1_node_102; 
     phases ABN; 
     voltage_A 13221.32+0.0j; 
     voltage_B -6610.66-11450j; 
     nominal_voltage 13221.32; 
} 

object node:167
{ 
     name R5-25-00-1_node_103; 
     phases CN; 
     voltage_C -6610.66+11450j; 
     nominal_voltage 13221.32; 
} 

object node:168
{ 
     name R5-25-00-1_node_104; 
     phases CN; 
     voltage_C -6610.66+11450j; 
     nominal_voltage 13221.32; 
} 

object node:169
{ 
     name R5-25-00-1_node_105; 
     phases CN; 
     voltage_C -6610.66+11450j; 
     nominal_voltage 13221.32; 
} 

object node:170
{ 
     name R5-25-00-1_node_106; 
     phases CN; 
     voltage_C -6610.66+11450j; 
     nominal_voltage 13221.32; 
} 

object node:171
{ 
     name R5-25-00-1_node_107; 
     phases BN; 
     voltage_B -6610.66-11450j; 
     nominal_voltage 13221.32; 
} 

object node:172
{ 
     name R5-25-00-1_node_108; 
     phases BN; 
     voltage_B -6610.66-11450j; 
     nominal_voltage 13221.32; 
} 

object node:173
{ 
     name R5-25-00-1_node_109; 
     phases ABCN; 
     voltage_A 13221.32+0.0j; 
     voltage_B -6610.66-11450j; 
     voltage_C -6610.66+11450j; 
     nominal_voltage 13221.32; 
} 

object node:174
{ 
     name R5-25-00-1_node_110; 
     phases ABCN; 
     voltage_A 13221.32+0.0j; 
     voltage_B -6610.66-11450j; 
     voltage_C -6610.66+11450j; 
     nominal_voltage 13221.32; 
} 

object node:175
{ 
     name R5-25-00-1_node_111; 
     phases BN; 
     voltage_B -6610.66-11450j; 
     nominal_voltage 13221.32; 
} 

object node:176
{ 
     name R5-25-00-1_node_112; 
     phases ABCN; 
     voltage_A 13221.32+0.0j; 
     voltage_B -6610.66-11450j; 
     voltage_C -6610.66+11450j; 
     nominal_voltage 13221.32; 
} 

object node:177
{ 
     name R5-25-00-1_node_113; 
     phases ABCN; 
     voltage_A 13221.32+0.0j; 
     voltage_B -6610.66-11450j; 
     voltage_C -6610.66+11450j; 
     nominal_voltage 13221.32; 
} 

object node:178
{ 
     name R5-25-00-1_node_114; 
     phases BN; 
     voltage_B -6610.66-11450j; 
     nominal_voltage 13221.32; 
} 

object node:179
{ 
     name R5-25-00-1_node_115; 
     phases BCN; 
     voltage_B -6610.66-11450j; 
     voltage_C -6610.66+11450j; 
     nominal_voltage 13221.32; 
} 

object node:180
{ 
     name R5-25-00-1_node_116; 
     phases CN; 
     voltage_C -6610.66+11450j; 
     nominal_voltage 13221.32; 
} 

object node:181
{ 
     name R5-25-00-1_node_117; 
     phases CN; 
     voltage_C -6610.66+11450j; 
     nominal_voltage 13221.32; 
} 

object node:182
{ 
     name R5-25-00-1_node_118; 
     phases CN; 
     voltage_C -6610.66+11450j; 
     nominal_voltage 13221.32; 
} 

object node:183
{ 
     name R5-25-00-1_node_119; 
     phases CN; 
     voltage_C -6610.66+11450j; 
     nominal_voltage 13221.32; 
} 

object node:184
{ 
     name R5-25-00-1_node_120; 
     phases BN; 
     voltage_B -6610.66-11450j; 
     nominal_voltage 13221.32; 
} 

object node:185
{ 
     name R5-25-00-1_node_121; 
     phases BN; 
     voltage_B -6610.66-11450j; 
     nominal_voltage 13221.32; 
} 

object node:186
{ 
     name R5-25-00-1_node_122; 
     phases BN; 
     voltage_B -6610.66-11450j; 
     nominal_voltage 13221.32; 
} 

object node:187
{ 
     name R5-25-00-1_node_123; 
     phases ABCN; 
     voltage_A 13221.32+0.0j; 
     voltage_B -6610.66-11450j; 
     voltage_C -6610.66+11450j; 
     nominal_voltage 13221.32; 
} 

object node:188
{ 
     name R5-25-00-1_node_124; 
     phases ABCN; 
     voltage_A 13221.32+0.0j; 
     voltage_B -6610.66-11450j; 
     voltage_C -6610.66+11450j; 
     nominal_voltage 13221.32; 
} 

object node:189
{ 
     name R5-25-00-1_node_125; 
     phases CN; 
     voltage_C -6610.66+11450j; 
     nominal_voltage 13221.32; 
} 

object node:190
{ 
     name R5-25-00-1_node_126; 
     phases CN; 
     voltage_C -6610.66+11450j; 
     nominal_voltage 13221.32; 
} 

object node:191
{ 
     name R5-25-00-1_node_127; 
     phases CN; 
     voltage_C -6610.66+11450j; 
     nominal_voltage 13221.32; 
} 

object node:192
{ 
     name R5-25-00-1_node_128; 
     phases AN; 
     voltage_A 13221.32+0.0j; 
     nominal_voltage 13221.32; 
} 

object node:193
{ 
     name R5-25-00-1_node_129; 
     phases AN; 
     voltage_A 13221.32+0.0j; 
     nominal_voltage 13221.32; 
} 

object node:194
{ 
     name R5-25-00-1_node_130; 
     phases CN; 
     voltage_C -6610.66+11450j; 
     nominal_voltage 13221.32; 
} 

object node:195
{ 
     name R5-25-00-1_node_131; 
     phases BN; 
     voltage_B -6610.66-11450j; 
     nominal_voltage 13221.32; 
} 

object node:196
{ 
     name R5-25-00-1_node_132; 
     phases AN; 
     voltage_A 13221.32+0.0j; 
     nominal_voltage 13221.32; 
} 

object node:197
{ 
     name R5-25-00-1_node_133; 
     phases ABCN; 
     voltage_A 13221.32+0.0j; 
     voltage_B -6610.66-11450j; 
     voltage_C -6610.66+11450j; 
     nominal_voltage 13221.32; 
} 

object node:198
{ 
     name R5-25-00-1_node_134; 
     phases ABCN; 
     voltage_A 13221.32+0.0j; 
     voltage_B -6610.66-11450j; 
     voltage_C -6610.66+11450j; 
     nominal_voltage 13221.32; 
} 

object node:199
{ 
     name R5-25-00-1_node_135; 
     phases ABCN; 
     voltage_A 13221.32+0.0j; 
     voltage_B -6610.66-11450j; 
     voltage_C -6610.66+11450j; 
     nominal_voltage 13221.32; 
} 

object node:200
{ 
     name R5-25-00-1_node_136; 
     phases ABCN; 
     voltage_A 13221.32+0.0j; 
     voltage_B -6610.66-11450j; 
     voltage_C -6610.66+11450j; 
     nominal_voltage 13221.32; 
} 

object node:201
{ 
     name R5-25-00-1_node_137; 
     phases BCN; 
     voltage_B -6610.66-11450j; 
     voltage_C -6610.66+11450j; 
     nominal_voltage 13221.32; 
} 

object node:202
{ 
     name R5-25-00-1_node_138; 
     phases AN; 
     voltage_A 13221.32+0.0j; 
     nominal_voltage 13221.32; 
} 

object node:203
{ 
     name R5-25-00-1_node_139; 
     phases AN; 
     voltage_A 13221.32+0.0j; 
     nominal_voltage 13221.32; 
} 

object node:204
{ 
     name R5-25-00-1_node_140; 
     phases CN; 
     voltage_C -6610.66+11450j; 
     nominal_voltage 13221.32; 
} 

object node:205
{ 
     name R5-25-00-1_node_141; 
     phases ABCN; 
     voltage_A 13221.32+0.0j; 
     voltage_B -6610.66-11450j; 
     voltage_C -6610.66+11450j; 
     nominal_voltage 13221.32; 
} 

object node:206
{ 
     name R5-25-00-1_node_142; 
     phases ABCN; 
     voltage_A 13221.32+0.0j; 
     voltage_B -6610.66-11450j; 
     voltage_C -6610.66+11450j; 
     nominal_voltage 13221.32; 
} 

object node:207
{ 
     name R5-25-00-1_node_143; 
     phases AN; 
     voltage_A 13221.32+0.0j; 
     nominal_voltage 13221.32; 
} 

object node:208
{ 
     name R5-25-00-1_node_144; 
     phases ABCN; 
     voltage_A 13221.32+0.0j; 
     voltage_B -6610.66-11450j; 
     voltage_C -6610.66+11450j; 
     nominal_voltage 13221.32; 
} 

object node:209
{ 
     name R5-25-00-1_node_145; 
     phases ABCN; 
     voltage_A 13221.32+0.0j; 
     voltage_B -6610.66-11450j; 
     voltage_C -6610.66+11450j; 
     nominal_voltage 13221.32; 
} 

object node:210
{ 
     name R5-25-00-1_node_146; 
     phases BN; 
     voltage_B -6610.66-11450j; 
     nominal_voltage 13221.32; 
} 

object node:211
{ 
     name R5-25-00-1_node_147; 
     phases CN; 
     voltage_C -6610.66+11450j; 
     nominal_voltage 13221.32; 
} 

object node:212
{ 
     name R5-25-00-1_node_148; 
     phases CN; 
     voltage_C -6610.66+11450j; 
     nominal_voltage 13221.32; 
} 

object node:213
{ 
     name R5-25-00-1_node_149; 
     phases CN; 
     voltage_C -6610.66+11450j; 
     nominal_voltage 13221.32; 
} 

object node:214
{ 
     name R5-25-00-1_node_150; 
     phases AN; 
     voltage_A 13221.32+0.0j; 
     nominal_voltage 13221.32; 
} 

object node:215
{ 
     name R5-25-00-1_node_151; 
     phases ABCN; 
     voltage_A 13221.32+0.0j; 
     voltage_B -6610.66-11450j; 
     voltage_C -6610.66+11450j; 
     nominal_voltage 13221.32; 
} 

object node:216
{ 
     name R5-25-00-1_node_152; 
     phases CN; 
     voltage_C -6610.66+11450j; 
     nominal_voltage 13221.32; 
} 

object node:217
{ 
     name R5-25-00-1_node_153; 
     phases CN; 
     voltage_C -6610.66+11450j; 
     nominal_voltage 13221.32; 
} 

object node:218
{ 
     name R5-25-00-1_node_154; 
     phases ABCN; 
     voltage_A 13221.32+0.0j; 
     voltage_B -6610.66-11450j; 
     voltage_C -6610.66+11450j; 
     nominal_voltage 13221.32; 
} 

object node:219
{ 
     name R5-25-00-1_node_155; 
     phases CN; 
     voltage_C -6610.66+11450j; 
     nominal_voltage 13221.32; 
} 

object node:220
{ 
     name R5-25-00-1_node_156; 
     phases CN; 
     voltage_C -6610.66+11450j; 
     nominal_voltage 13221.32; 
} 

object node:221
{ 
     name R5-25-00-1_node_157; 
     phases CN; 
     voltage_C -6610.66+11450j; 
     nominal_voltage 13221.32; 
} 

object node:222
{ 
     name R5-25-00-1_node_158; 
     phases CN; 
     voltage_C -6610.66+11450j; 
     nominal_voltage 13221.32; 
} 

object node:223
{ 
     name R5-25-00-1_node_159; 
     phases CN; 
     voltage_C -6610.66+11450j; 
     nominal_voltage 13221.32; 
} 

object node:224
{ 
     name R5-25-00-1_node_160; 
     phases CN; 
     voltage_C -6610.66+11450j; 
     nominal_voltage 13221.32; 
} 

object node:225
{ 
     name R5-25-00-1_node_161; 
     phases CN; 
     voltage_C -6610.66+11450j; 
     nominal_voltage 13221.32; 
} 

object node:226
{ 
     name R5-25-00-1_node_162; 
     phases CN; 
     voltage_C -6610.66+11450j; 
     nominal_voltage 13221.32; 
} 

object node:227
{ 
     name R5-25-00-1_node_163; 
     phases CN; 
     voltage_C -6610.66+11450j; 
     nominal_voltage 13221.32; 
} 

object node:228
{ 
     name R5-25-00-1_node_164; 
     phases CN; 
     voltage_C -6610.66+11450j; 
     nominal_voltage 13221.32; 
} 

object node:229
{ 
     name R5-25-00-1_node_165; 
     phases CN; 
     voltage_C -6610.66+11450j; 
     nominal_voltage 13221.32; 
} 

object node:230
{ 
     name R5-25-00-1_node_166; 
     phases CN; 
     voltage_C -6610.66+11450j; 
     nominal_voltage 13221.32; 
} 

object node:231
{ 
     name R5-25-00-1_node_167; 
     phases CN; 
     voltage_C -6610.66+11450j; 
     nominal_voltage 13221.32; 
} 

object node:232
{ 
     name R5-25-00-1_node_168; 
     phases BN; 
     voltage_B -6610.66-11450j; 
     nominal_voltage 13221.32; 
} 

object node:233
{ 
     name R5-25-00-1_node_169; 
     phases BN; 
     voltage_B -6610.66-11450j; 
     nominal_voltage 13221.32; 
} 

object node:234
{ 
     name R5-25-00-1_node_170; 
     phases BN; 
     voltage_B -6610.66-11450j; 
     nominal_voltage 13221.32; 
} 

object node:235
{ 
     name R5-25-00-1_node_171; 
     phases CN; 
     voltage_C -6610.66+11450j; 
     nominal_voltage 13221.32; 
} 

object node:236
{ 
     name R5-25-00-1_node_172; 
     phases AN; 
     voltage_A 13221.32+0.0j; 
     nominal_voltage 13221.32; 
} 

object node:237
{ 
     name R5-25-00-1_node_173; 
     phases AN; 
     voltage_A 13221.32+0.0j; 
     nominal_voltage 13221.32; 
} 

object node:238
{ 
     name R5-25-00-1_node_174; 
     phases ABCN; 
     voltage_A 13221.32+0.0j; 
     voltage_B -6610.66-11450j; 
     voltage_C -6610.66+11450j; 
     nominal_voltage 13221.32; 
} 

object node:239
{ 
     name R5-25-00-1_node_175; 
     phases AN; 
     voltage_A 13221.32+0.0j; 
     nominal_voltage 13221.32; 
} 

object node:240
{ 
     name R5-25-00-1_node_176; 
     phases AN; 
     voltage_A 13221.32+0.0j; 
     nominal_voltage 13221.32; 
} 

object node:241
{ 
     name R5-25-00-1_node_177; 
     phases AN; 
     voltage_A 13221.32+0.0j; 
     nominal_voltage 13221.32; 
} 

object node:242
{ 
     name R5-25-00-1_node_178; 
     phases AN; 
     voltage_A 13221.32+0.0j; 
     nominal_voltage 13221.32; 
} 

object node:243
{ 
     name R5-25-00-1_node_179; 
     phases AN; 
     voltage_A 13221.32+0.0j; 
     nominal_voltage 13221.32; 
} 

object node:244
{ 
     name R5-25-00-1_node_180; 
     phases AN; 
     voltage_A 13221.32+0.0j; 
     nominal_voltage 13221.32; 
} 

object node:245
{ 
     name R5-25-00-1_node_181; 
     phases AN; 
...